Version 4
SHEET 1 880 680
WIRE 224 -64 -416 -64
WIRE 0 -32 -144 -32
WIRE 96 -32 0 -32
WIRE 0 -16 0 -32
WIRE -144 96 -144 -32
WIRE 0 96 0 64
WIRE 80 96 0 96
WIRE 224 96 224 -64
WIRE 592 112 480 112
WIRE 0 128 0 96
WIRE 592 128 592 112
WIRE 96 144 96 -32
WIRE 128 144 96 144
WIRE 352 144 320 144
WIRE 80 176 80 96
WIRE 128 176 80 176
WIRE 480 176 480 112
WIRE 480 176 320 176
WIRE 480 192 480 176
WIRE 0 208 -64 208
WIRE 128 208 112 208
WIRE 352 208 320 208
WIRE -224 224 -256 224
WIRE -144 224 -144 176
WIRE 112 224 112 208
WIRE 112 224 -144 224
WIRE 128 240 -32 240
WIRE 592 240 592 208
WIRE 592 240 544 240
WIRE -416 272 -416 -64
WIRE -256 272 -256 224
WIRE -32 288 -32 240
WIRE 592 288 592 240
WIRE 352 304 352 208
WIRE 480 304 480 288
WIRE 480 304 352 304
WIRE 544 304 480 304
WIRE -64 384 -64 208
WIRE -32 384 -32 368
WIRE -32 384 -64 384
WIRE -416 400 -416 352
WIRE -256 400 -256 352
WIRE -32 400 -32 384
WIRE 224 400 224 288
WIRE 592 416 592 384
WIRE 656 416 592 416
WIRE 800 416 736 416
WIRE 592 432 592 416
WIRE 800 432 800 416
WIRE 592 544 592 496
WIRE 800 544 800 512
FLAG 592 544 0
FLAG 800 544 0
FLAG 224 400 0
FLAG -32 400 0
FLAG -416 400 0
FLAG -256 400 0
FLAG 352 144 0
SYMBOL pnp 544 288 R180
SYMATTR InstName Q1
SYMATTR Value 2N2907
SYMBOL pmos 544 384 M180
SYMATTR InstName M1
SYMATTR Value Si7461DP
SYMBOL res 576 112 R0
SYMATTR InstName R1
SYMATTR Value 15
SYMBOL cap 576 432 R0
SYMATTR InstName C1
SYMATTR Value 30p
SYMBOL res 640 432 R270
WINDOW 0 32 56 VTop 2
WINDOW 3 0 56 VBottom 2
SYMATTR InstName R2
SYMATTR Value 15
SYMBOL res 784 416 R0
SYMATTR InstName RL
SYMATTR Value 250
SYMBOL voltage -416 256 R0
WINDOW 123 0 0 Left 2
WINDOW 39 0 0 Left 2
SYMATTR InstName V1
SYMATTR Value 12
SYMBOL res -48 272 R0
SYMATTR InstName Rset
SYMATTR Value 1.65K
SYMATTR SpiceLine tol=1 pwr=0.1
SYMBOL XTR111 224 192 R0
SYMATTR InstName X1
SYMBOL voltage -256 256 R0
WINDOW 123 0 0 Left 0
WINDOW 39 0 0 Left 0
SYMATTR InstName V2
SYMATTR Value 0
SYMBOL res -128 208 R90
WINDOW 0 0 56 VBottom 2
WINDOW 3 32 56 VTop 2
SYMATTR InstName R3
SYMATTR Value 4.7K
SYMATTR SpiceLine tol=1 pwr=0.1
SYMBOL res -160 80 R0
SYMATTR InstName R4
SYMATTR Value 18K
SYMATTR SpiceLine tol=1 pwr=0.1
SYMBOL res -16 -32 R0
SYMATTR InstName R5
SYMATTR Value 3.32K
SYMATTR SpiceLine tol=1 pwr=0.1
SYMBOL res -16 112 R0
SYMATTR InstName R6
SYMATTR Value 33.2K
SYMATTR SpiceLine tol=1 pwr=0.1
TEXT -328 448 Left 2 !.tran 1 startup
TEXT -168 -120 Left 2 ;uscita 4mA quando ingresso 0V 3 FILI
